<?xml version="1.0" encoding="UTF-8"?>

<!-- generated on 2026-03-15 19:03:41.277483 by Eclipse SUMO randomTrips.py v1_26_0+0000-fa7df22d7f1
<configuration>
    <net-file value="network\osm.net.xml"/>
    <additional-files value="demand\vtypes.add.xml"/>
    <output-trip-file value="demand\car.trips.xml"/>
    <route-file value="demand\car.rou.xml"/>
    <prefix value="car_"/>
    <trip-attributes value="type='car'"/>
    <lanes value="True"/>
    <fringe-factor value="5.0"/>
    <edge-permission value="passenger"/>
    <period value="3.6"/>
    <poisson value="True"/>
</configuration>
-->

<!-- generated on 2026-03-15T19:03:41.161711+01:00 by Eclipse SUMO duarouter 1.26.0
<duarouterConfiguration xmlns:xsi="http://www.w3.org/2001/XMLSchema-instance" xsi:noNamespaceSchemaLocation="http://sumo.dlr.de/xsd/duarouterConfiguration.xsd">

    <input>
        <net-file value="network\osm.net.xml"/>
        <additional-files value="demand\vtypes.add.xml"/>
        <route-files value="demand\car.trips.xml"/>
    </input>

    <output>
        <output-file value="demand\car.rou.xml"/>
        <alternatives-output value="NUL"/>
    </output>

    <time>
        <begin value="0"/>
        <end value="3600.0"/>
    </time>

    <report>
        <no-warnings value="true"/>
        <ignore-errors value="true"/>
        <no-step-log value="true"/>
    </report>

</duarouterConfiguration>
-->

<routes xmlns:xsi="http://www.w3.org/2001/XMLSchema-instance" xsi:noNamespaceSchemaLocation="http://sumo.dlr.de/xsd/routes_file.xsd">
    <vType id="car" length="5.00" maxSpeed="50.00" vClass="passenger" emissionClass="HBEFA3/PC_G_EU4" guiShape="passenger" color="white" laneChangeModel="SL2015" lcStrategic="1.0" lcCooperative="2" lcSpeedGain="1.0" lcAssertive="1.0" accel="2.6" decel="4.5" sigma="0.5"/>
    <vehicle id="car_0" type="car" depart="0.00">
        <route edges="287311357#0 27348585#0 61316915 187938712 287311363#0 1348067247 1348067246#0 287311364 27476746 291941452 291941449 1232964862 27476764#0 -1348067248"/>
    </vehicle>
    <vehicle id="car_1" type="car" depart="3.60">
        <route edges="961539471 961539472 236811148 236811149#0 1271126935 169400610#0 224821292#0 1147624737#0 1147624737#1"/>
    </vehicle>
    <vehicle id="car_2" type="car" depart="7.20">
        <route edges="161297934 1362019276 29092803 942711932#0 61316958 236818221#0 224821293#2"/>
    </vehicle>
    <vehicle id="car_3" type="car" depart="10.80">
        <route edges="287311363#0 1348067247 1348067246#0 287311364 27476746 291941452 942711943 1347887395 255904385#0 61316958 236818221#0 224821293#2 1232799370 1232799371#2 1232799371#4 277203712 236809165"/>
    </vehicle>
    <vehicle id="car_4" type="car" depart="14.40">
        <route edges="61293002 61293002.258 236825276 291941452 291941449 1232964862 1232964863 287311364 236825277 -1316855122#3"/>
    </vehicle>
    <vehicle id="car_5" type="car" depart="18.00">
        <route edges="200568455#0 227216231#0 236818215 236818214 187938710#0 169400609#0 224821293#2 1232799370 1232799371#2"/>
    </vehicle>
    <vehicle id="car_6" type="car" depart="21.60">
        <route edges="432309717 -27476683 942711942 1232964862 27476764#0"/>
    </vehicle>
    <vehicle id="car_7" type="car" depart="25.20">
        <route edges="27348585#0 61316915 187938712 287311363#0 1348067247 1348067246#0 287311364 27476746 291941452 942711943"/>
    </vehicle>
    <vehicle id="car_8" type="car" depart="28.80">
        <route edges="224821293#2 1232799370 1232799371#2 1232799371#4 277203712 236809165"/>
    </vehicle>
    <vehicle id="car_9" type="car" depart="32.40">
        <route edges="61316958 236818221#0 224821293#2 1232799370 1232799371#2 1232799371#4 277203712 236809165"/>
    </vehicle>
    <vehicle id="car_10" type="car" depart="36.00">
        <route edges="29114711#0.184 1362017843 1362017842.95 313992354#0 313992354#1 1362017841 313992351#0 287311357#0 432309716#0 287956206#2 1451328237#0 E1 1323631883 430532793.85 430532793.85.34 430532793.85.34.10 -407552210#1"/>
    </vehicle>
    <vehicle id="car_11" type="car" depart="39.60">
        <route edges="161297934 1362019276 29092803 942711932#0 61316958 236818220#0 287956206#2 1271126935 187938713#0 287311357#0 27348585#0 61316915 287956205 25126523 1362019277 1362020490"/>
    </vehicle>
    <vehicle id="car_12" type="car" depart="43.20">
        <route edges="1348067246#0 287311364 27476746 291941452 291941449 1232964862 27476764#0 -1348067248 61295588#0 25126523 1362019277 1362020490"/>
    </vehicle>
    <vehicle id="car_13" type="car" depart="46.80">
        <route edges="187938710#0 27348585#0 61316915 187938712 287311363#0 1348067247 1348067246#0 287311364 27476746 291941452 942711943 1347887395 255904385#0 61316958"/>
    </vehicle>
    <vehicle id="car_14" type="car" depart="50.40">
        <route edges="61316915 187938712 287311363#0"/>
    </vehicle>
    <vehicle id="car_15" type="car" depart="54.00">
        <route edges="161297934 1362019276 29092803 942711932#0 61316958 236818220#0 287956206#2 1451328237#0 E1 1323631883 430532793.85 430532793.85.34 430532793.85.34.10 -407552210#1"/>
    </vehicle>
    <vehicle id="car_16" type="car" depart="57.60">
        <route edges="200568455#0 227216231#0 236818215 236818214 187938710#0 27348585#0 61316915 287956205 25126523 1362019277"/>
    </vehicle>
    <vehicle id="car_17" type="car" depart="61.20">
        <route edges="161297934 1362019276 29092803 942711932#0 61316958"/>
    </vehicle>
    <vehicle id="car_18" type="car" depart="64.80">
        <route edges="1323631883 430532793.85 430532793.85.34 430532793.85.34.10 -407552210#1"/>
    </vehicle>
    <vehicle id="car_19" type="car" depart="68.40">
        <route edges="961539471 961539472 236811148 236811149#0 1451328237#0 E1 1323631883 430532793.85 430532793.85.34 430532793.85.34.10 430532795"/>
    </vehicle>
    <vehicle id="car_20" type="car" depart="72.00">
        <route edges="29114711#0.184 1362017843 1362017842.95 313992354#0 313992354#1 1362017841 313992351#0 287311357#0 169400609#0 224821293#2 1232799370 1232799371#2 1232799371#4 277203712 236809165"/>
    </vehicle>
    <vehicle id="car_21" type="car" depart="75.60">
        <route edges="942711932#0 61316958 236818220#0 287956206#2 1271126935 187938713#0 287311357#0 27348585#0 61316915 287956205 25126523 1362019277"/>
    </vehicle>
    <vehicle id="car_22" type="car" depart="79.20">
        <route edges="961539471 961539472 236811148 236811149#0 1451328237#0 E1 1323631883 430532793.85 430532793.85.34 430532793.85.34.10 430532795"/>
    </vehicle>
    <vehicle id="car_23" type="car" depart="82.80">
        <route edges="200568455#0 227216231#0 236818215 236818214 161297931#0 432309716#0 287956206#2 1271126935 169400610#0 224821292#0 1147624737#0"/>
    </vehicle>
    <vehicle id="car_24" type="car" depart="86.40">
        <route edges="1271126935 187938713#0 287311357#0"/>
    </vehicle>
    <vehicle id="car_25" type="car" depart="90.00">
        <route edges="236818215 236818214 187938710#0 169400609#0 224821293#2 1232799370 1232799371#2 1232799371#4 277203712 236809165"/>
    </vehicle>
    <vehicle id="car_26" type="car" depart="93.60">
        <route edges="187938710#0 27348585#0 61316915 187938712 287311363#0 1348067247 1348067246#0 287311364 27476746 291941452 942711943 1347887395 255904385#0 61316958 236818220#0 287956206#2 1451328237#0 E1 1323631883 430532793.85 430532793.85.34 430532793.85.34.10 430532795"/>
    </vehicle>
    <vehicle id="car_27" type="car" depart="97.20">
        <route edges="236811148 236811149#0 1271126935 187938713#0 287311357#0 27348585#0 61316915 187938712 287311363#0 1348067247 1348067246#0"/>
    </vehicle>
    <vehicle id="car_28" type="car" depart="100.80">
        <route edges="27348585#0 61316915 187938712 287311363#0 1348067247 1348067246#0 287311364 27476746 291941452 291941449 1232964862 27476764#0"/>
    </vehicle>
    <vehicle id="car_29" type="car" depart="104.40">
        <route edges="161297934 1362019276 29092803 942711932#0 61316958 236818220#0 287956206#2 1271126935 187938713#0 287311357#0 27348585#0 61316915 287956205 25126523 1362019277 1362020490"/>
    </vehicle>
    <vehicle id="car_30" type="car" depart="108.00">
        <route edges="1362017842.95 313992354#0 313992354#1 1362017841"/>
    </vehicle>
    <vehicle id="car_31" type="car" depart="111.60">
        <route edges="161297934 1362019276 29092803 942711932#0 61316958 236818220#0 287956206#2 1271126935 187938713#0 287311357#0 432309716#0"/>
    </vehicle>
    <vehicle id="car_32" type="car" depart="115.20">
        <route edges="61316958 236818220#0 287956206#2 1271126935 169400610#0 224821292#0 1147624737#0 1147624737#1"/>
    </vehicle>
    <vehicle id="car_33" type="car" depart="118.80">
        <route edges="161297934 1362019276 29092803 942711932#0 61316958 236818220#0 287956206#2 1271126935 169400610#0 224821292#0 1147624737#0 1147624737#1"/>
    </vehicle>
    <vehicle id="car_34" type="car" depart="122.40">
        <route edges="961539471 961539472 236811148 153776637#0 224821293#2 1232799370 1232799371#2 1232799371#4 277203712 236809165"/>
    </vehicle>
    <vehicle id="car_35" type="car" depart="126.00">
        <route edges="236818214 161297931#0 432309716#0 287956206#2"/>
    </vehicle>
    <vehicle id="car_36" type="car" depart="129.60">
        <route edges="432309717 -27476683 942711942 1232964862 1232964863 287311364 27476746 291941452 942711943 1347887395 255904385#0 61316958 236818220#0 287956206#2 1271126935"/>
    </vehicle>
    <vehicle id="car_37" type="car" depart="133.20">
        <route edges="961539472 236811148 236811149#0 1271126935 169400610#0 224821292#0 1147624737#0 1147624737#1"/>
    </vehicle>
    <vehicle id="car_38" type="car" depart="136.80">
        <route edges="236811148 236811149#0 1271126935 187938713#0 287311357#0 27348585#0 61316915 287956205 25126523 1362019277 1362020490"/>
    </vehicle>
    <vehicle id="car_39" type="car" depart="140.40">
        <route edges="236811149#0 1451328237#0 E1 1323631883 430532793.85 430532793.85.34 430532793.85.34.10 430532795"/>
    </vehicle>
    <vehicle id="car_40" type="car" depart="144.00">
        <route edges="E1 1323631883 430532793.85 430532793.85.34"/>
    </vehicle>
    <vehicle id="car_41" type="car" depart="147.60">
        <route edges="961539471 961539472 236811148 236811149#0 1271126935 187938713#0 287311357#0 27348585#0 61316915"/>
    </vehicle>
    <vehicle id="car_42" type="car" depart="151.20">
        <route edges="61316958 236818221#0 224821293#2 1232799370 1232799371#2 1232799371#4"/>
    </vehicle>
    <vehicle id="car_43" type="car" depart="154.80">
        <route edges="236818215 236818214 187938710#0 27348585#0 61316915 187938712 287311363#0 1348067247 1348067246#0"/>
    </vehicle>
    <vehicle id="car_44" type="car" depart="158.40">
        <route edges="227216231#0 236818215 236818214 161297931#0 432309716#0 287956206#2 1271126935 169400610#0 224821292#0 1147624737#0"/>
    </vehicle>
    <vehicle id="car_45" type="car" depart="162.00">
        <route edges="187938710#0 27348585#0 61316915 187938712 287311363#0 1348067247 1348067246#0 287311364 27476746 291941452 942711943 1347887395 255904385#0 61316958 236818220#0 287956206#2"/>
    </vehicle>
    <vehicle id="car_46" type="car" depart="165.60">
        <route edges="961539471 961539472"/>
    </vehicle>
    <vehicle id="car_47" type="car" depart="169.20">
        <route edges="1362019277 1362020490"/>
    </vehicle>
    <vehicle id="car_48" type="car" depart="172.80">
        <route edges="961539471 961539472 236811148 153776637#0 224821293#2 1232799370 1232799371#2 1232799371#4 277203712 236809165"/>
    </vehicle>
    <vehicle id="car_49" type="car" depart="176.40">
        <route edges="1232799371#4 277203712 236809165"/>
    </vehicle>
    <vehicle id="car_50" type="car" depart="180.00">
        <route edges="1271126935"/>
    </vehicle>
    <vehicle id="car_51" type="car" depart="183.60">
        <route edges="236811148 153776637#0 224821293#2 1232799370 1232799371#2 1232799371#4 277203712 236809165"/>
    </vehicle>
    <vehicle id="car_52" type="car" depart="187.20">
        <route edges="161297934 1362019276 29092803 942711932#0 61316958 236818220#0 287956206#2 1271126935 187938713#0 287311357#0 27348585#0"/>
    </vehicle>
    <vehicle id="car_53" type="car" depart="190.80">
        <route edges="29114711#0.184 1362017843 1362017842.95 196662201 942711933 196664103 1362019277 1362020490"/>
    </vehicle>
    <vehicle id="car_54" type="car" depart="194.40">
        <route edges="E1"/>
    </vehicle>
    <vehicle id="car_55" type="car" depart="198.00">
        <route edges="1271126935 187938713#0 287311357#0 27348585#0 61316915 187938712 287311363#0 1348067247 1348067246#0"/>
    </vehicle>
    <vehicle id="car_56" type="car" depart="201.60">
        <route edges="187938710#0 27348585#0 61316915 187938712 287311363#0 1348067247 1348067246#0 287311364 27476746 291941452 942711943 1347887395 255904385#0 61316958"/>
    </vehicle>
    <vehicle id="car_57" type="car" depart="205.20">
        <route edges="942711942 1232964862 1232964863 287311364 27476746 291941452 942711943 1347887395 255904385#0 61316958 236818220#0 287956206#2 1451328237#0 E1 1323631883 430532793.85 430532793.85.34 430532793.85.34.10 430532795"/>
    </vehicle>
    <vehicle id="car_58" type="car" depart="208.80">
        <route edges="61293002 61293002.258 236825276 291941452 291941449 1232964862 27476764#0 -1348067248 61295588#0 25126523 1362019277 1362020490"/>
    </vehicle>
    <vehicle id="car_59" type="car" depart="212.40">
        <route edges="287956206#2 1271126935 187938713#0 287311357#0 27348585#0 61316915 187938712 287311363#0 1348067247 1348067246#0 287311364 27476746 291941452 942711943 1347887395 255904385#0 61316958"/>
    </vehicle>
    <vehicle id="car_60" type="car" depart="216.00">
        <route edges="1362017843 1362017842.95 313992354#0 313992354#1 1362017841 153776638#0 224821292#0 1147624737#0 1147624737#1"/>
    </vehicle>
    <vehicle id="car_61" type="car" depart="219.60">
        <route edges="1362017841 313992351#0 287311357#0 169400609#0 224821293#2 1232799370 1232799371#2 1232799371#4 277203712 236809165"/>
    </vehicle>
    <vehicle id="car_62" type="car" depart="223.20">
        <route edges="313992351#0 287311357#0 432309716#0 287956206#2 1451328237#0 E1 1323631883"/>
    </vehicle>
    <vehicle id="car_63" type="car" depart="226.80">
        <route edges="236818215 236818214 161297931#0 432309716#0"/>
    </vehicle>
    <vehicle id="car_64" type="car" depart="230.40">
        <route edges="61316915 187938712 287311363#0 1348067247 1348067246#0 287311364 27476746 291941452 942711943 1347887395 255904385#0 61316958 236818220#0 287956206#2 1271126935 169400610#0 224821292#0 1147624737#0 1147624737#1"/>
    </vehicle>
    <vehicle id="car_65" type="car" depart="234.00">
        <route edges="236811148 236811149#0 1271126935 187938713#0 287311357#0 27348585#0 61316915 287956205 25126523 1362019277 1362020490"/>
    </vehicle>
    <vehicle id="car_66" type="car" depart="237.60">
        <route edges="236811149#0 1271126935 187938713#0 287311357#0 27348585#0 61316915 187938712 287311363#0 1348067247 1348067246#0 287311364 236825277 -1316855122#3"/>
    </vehicle>
    <vehicle id="car_67" type="car" depart="241.20">
        <route edges="1271126935 187938713#0 287311357#0 432309716#0 287956206#2 1451328237#0 E1 1323631883 430532793.85 430532793.85.34 430532793.85.34.10 430532795"/>
    </vehicle>
    <vehicle id="car_68" type="car" depart="244.80">
        <route edges="961539471 961539472 236811148 153776637#0 224821293#2 1232799370 1232799371#2 1232799371#4 277203712 236809165"/>
    </vehicle>
    <vehicle id="car_69" type="car" depart="248.40">
        <route edges="1362019276 29092803 942711932#0 61316958 236818220#0 287956206#2 1271126935 169400610#0 224821292#0 1147624737#0 1147624737#1"/>
    </vehicle>
    <vehicle id="car_70" type="car" depart="252.00">
        <route edges="200568455#0 227216231#0 236818215 236818214 161297931#0 432309716#0 287956206#2 1451328237#0 E1 1323631883 430532793.85 430532793.85.34 430532793.85.34.10 430532795"/>
    </vehicle>
    <vehicle id="car_71" type="car" depart="255.60">
        <route edges="432309716#0 287956206#2 1451328237#0 E1 1323631883 430532793.85 430532793.85.34 430532793.85.34.10 430532795"/>
    </vehicle>
    <vehicle id="car_72" type="car" depart="259.20">
        <route edges="961539471 961539472 236811148 236811149#0 1271126935 187938713#0 287311357#0 27348585#0 61316915 187938712 287311363#0 1348067247 1348067246#0"/>
    </vehicle>
    <vehicle id="car_73" type="car" depart="262.80">
        <route edges="169400610#0 224821292#0 1147624737#0 1147624737#1"/>
    </vehicle>
    <vehicle id="car_74" type="car" depart="266.40">
        <route edges="430532793.85.34 430532793.85.34.10 430532795"/>
    </vehicle>
    <vehicle id="car_75" type="car" depart="270.00">
        <route edges="236811148 236811149#0"/>
    </vehicle>
    <vehicle id="car_76" type="car" depart="273.60">
        <route edges="61293002 61293002.258 236825276 291941452 942711943 1347887395 255904385#0 61316958 236818220#0 287956206#2 1451328237#0 E1 1323631883 430532793.85 430532793.85.34 430532793.85.34.10 430532795"/>
    </vehicle>
    <vehicle id="car_77" type="car" depart="277.20">
        <route edges="200568455#0 227216231#0 236818215 236818214 187938710#0 27348585#0 61316915 187938712 287311363#0 1348067247 1348067246#0 287311364 27476746 291941452 942711943 1347887395 255904385#0 61316958"/>
    </vehicle>
    <vehicle id="car_78" type="car" depart="280.80">
        <route edges="432309716#0 287956206#2 1451328237#0 E1 1323631883 430532793.85 430532793.85.34 430532793.85.34.10 430532795"/>
    </vehicle>
    <vehicle id="car_79" type="car" depart="284.40">
        <route edges="61293002 61293002.258 236825276 291941452 291941449 1232964862 27476764#0 -1348067248 61295588#0 25126523 1362019277"/>
    </vehicle>
    <vehicle id="car_80" type="car" depart="288.00">
        <route edges="942711932#0 61316958 236818220#0 287956206#2 1451328237#0 E1 1323631883 430532793.85 430532793.85.34 430532793.85.34.10 430532795"/>
    </vehicle>
    <vehicle id="car_81" type="car" depart="291.60">
        <route edges="236818214 187938710#0 27348585#0 61316915 287956205 25126523 1362019277 1362020490"/>
    </vehicle>
    <vehicle id="car_82" type="car" depart="295.20">
        <route edges="200568455#0 227216231#0 236818215 236818214 161297931#0 432309716#0 287956206#2 1451328237#0 E1 1323631883 430532793.85 430532793.85.34 430532793.85.34.10 430532795"/>
    </vehicle>
    <vehicle id="car_83" type="car" depart="298.80">
        <route edges="961539471 961539472 236811148 236811149#0 1271126935 187938713#0 287311357#0 27348585#0 61316915 287956205 25126523 1362019277 1362020490"/>
    </vehicle>
    <vehicle id="car_84" type="car" depart="302.40">
        <route edges="287311357#0 432309716#0 287956206#2 1271126935 187938713#0"/>
    </vehicle>
    <vehicle id="car_85" type="car" depart="306.00">
        <route edges="961539472 236811148 153776637#0 224821293#2 1232799370 1232799371#2 1232799371#4 277203712 236809165"/>
    </vehicle>
    <vehicle id="car_86" type="car" depart="309.60">
        <route edges="961539471 961539472 236811148 236811149#0 1271126935 169400610#0 224821292#0 1147624737#0 1147624737#1"/>
    </vehicle>
    <vehicle id="car_87" type="car" depart="313.20">
        <route edges="961539471 961539472 236811148 236811149#0 1271126935"/>
    </vehicle>
    <vehicle id="car_88" type="car" depart="316.80">
        <route edges="961539471 961539472 236811148 236811149#0 1271126935 187938713#0 287311357#0 27348585#0 61316915 287956205 25126523 1362019277"/>
    </vehicle>
    <vehicle id="car_89" type="car" depart="320.40">
        <route edges="313992354#0 313992354#1 1362017841 313992351#0 287311357#0 27348585#0 61316915 287956205 25126523 1362019277 1362020490"/>
    </vehicle>
    <vehicle id="car_90" type="car" depart="324.00">
        <route edges="224821293#2 1232799370 1232799371#2 1232799371#4 277203712 236809165"/>
    </vehicle>
    <vehicle id="car_91" type="car" depart="327.60">
        <route edges="27348585#0"/>
    </vehicle>
    <vehicle id="car_92" type="car" depart="331.20">
        <route edges="224821292#0 1147624737#0 1147624737#1"/>
    </vehicle>
    <vehicle id="car_93" type="car" depart="334.80">
        <route edges="200568455#0 227216231#0 236818215 236818214 161297931#0 432309716#0 287956206#2 1451328237#0 E1 1323631883 430532793.85 430532793.85.34 430532793.85.34.10"/>
    </vehicle>
    <vehicle id="car_94" type="car" depart="338.40">
        <route edges="313992351#0 287311357#0 27348585#0 61316915 287956205 25126523 1362019277 1362020490"/>
    </vehicle>
    <vehicle id="car_95" type="car" depart="342.00">
        <route edges="236811148 236811149#0 1271126935 187938713#0 287311357#0 27348585#0 61316915 287956205 25126523 1362019277 1362020490"/>
    </vehicle>
    <vehicle id="car_96" type="car" depart="345.60">
        <route edges="961539471 961539472 236811148 236811149#0 1271126935 187938713#0 287311357#0 27348585#0 61316915 187938712 287311363#0 1348067247 1348067246#0 287311364 27476746 291941452 942711943 1347887395 255904385#0 61316958 236818220#0"/>
    </vehicle>
    <vehicle id="car_97" type="car" depart="349.20">
        <route edges="961539471 961539472 236811148 236811149#0"/>
    </vehicle>
    <vehicle id="car_98" type="car" depart="352.80">
        <route edges="200568455#0 227216231#0 236818215 236818214 187938710#0 169400609#0 224821293#2 1232799370 1232799371#2 1232799371#4 277203712 236809165"/>
    </vehicle>
    <vehicle id="car_99" type="car" depart="356.40">
        <route edges="-1348067248 61295588#0 25126523 1362019277 1362020490"/>
    </vehicle>
    <vehicle id="car_100" type="car" depart="360.00">
        <route edges="236811149#0 1271126935 187938713#0 287311357#0 169400609#0 224821293#2 1232799370 1232799371#2 1232799371#4 277203712 236809165"/>
    </vehicle>
    <vehicle id="car_101" type="car" depart="363.60">
        <route edges="236811149#0 1271126935 187938713#0 287311357#0 27348585#0 61316915 187938712 287311363#0 1348067247 1348067246#0"/>
    </vehicle>
    <vehicle id="car_102" type="car" depart="367.20">
        <route edges="236818214 161297931#0 432309716#0"/>
    </vehicle>
    <vehicle id="car_103" type="car" depart="370.80">
        <route edges="432309716#0 287956206#2 1271126935 187938713#0 287311357#0 169400609#0 224821293#2 1232799370 1232799371#2 1232799371#4"/>
    </vehicle>
    <vehicle id="car_104" type="car" depart="374.40">
        <route edges="29114711#0.184 1362017843 1362017842.95 313992354#0 313992354#1 1362017841"/>
    </vehicle>
    <vehicle id="car_105" type="car" depart="378.00">
        <route edges="161297934 1362019276 29092803 432309717 -27476683 942711942 1232964862 27476764#0 -1348067248"/>
    </vehicle>
    <vehicle id="car_106" type="car" depart="381.60">
        <route edges="61316958 236818220#0 287956206#2 1271126935 169400610#0 224821292#0 1147624737#0 1147624737#1"/>
    </vehicle>
    <vehicle id="car_107" type="car" depart="385.20">
        <route edges="236811148 236811149#0"/>
    </vehicle>
    <vehicle id="car_108" type="car" depart="388.80">
        <route edges="241159845 1323631883 430532793.85 430532793.85.34 430532793.85.34.10 -407552210#1"/>
    </vehicle>
    <vehicle id="car_109" type="car" depart="392.40">
        <route edges="961539471 961539472 236811148 236811149#0"/>
    </vehicle>
    <vehicle id="car_110" type="car" depart="396.00">
        <route edges="313992351#0 287311357#0 169400609#0 224821293#2"/>
    </vehicle>
    <vehicle id="car_111" type="car" depart="399.60">
        <route edges="61293002.258 236825276 291941452 942711943 1347887395 255904385#0 61316958 236818221#0 224821293#2 1232799370 1232799371#2 1232799371#4 277203712 236809165"/>
    </vehicle>
    <vehicle id="car_112" type="car" depart="403.20">
        <route edges="961539471 961539472 236811148 153776637#0 224821293#2 1232799370 1232799371#2 1232799371#4 277203712"/>
    </vehicle>
    <vehicle id="car_113" type="car" depart="406.80">
        <route edges="1271126935 187938713#0 287311357#0 27348585#0 61316915 287956205 25126523 1362019277 1362020490"/>
    </vehicle>
    <vehicle id="car_114" type="car" depart="410.40">
        <route edges="187938710#0 27348585#0 61316915 187938712 287311363#0 1348067247 1348067246#0 287311364 27476746 291941452 942711943 1347887395 255904385#0 61316958 236818220#0 287956206#2 1451328237#0"/>
    </vehicle>
    <vehicle id="car_115" type="car" depart="414.00">
        <route edges="27348585#0 61316915 187938712 287311363#0 1348067247 1348067246#0 287311364 27476746 291941452 942711943 1347887395 255904385#0 61316958 236818221#0 224821293#2 1232799370"/>
    </vehicle>
    <vehicle id="car_116" type="car" depart="417.60">
        <route edges="29114711#0.184 1362017843 1362017842.95 313992354#0 313992354#1 1362017841 153776638#0 224821292#0 1147624737#0"/>
    </vehicle>
    <vehicle id="car_117" type="car" depart="421.20">
        <route edges="236811148 153776637#0 224821293#2 1232799370 1232799371#2 1232799371#4 277203712 236809165"/>
    </vehicle>
    <vehicle id="car_118" type="car" depart="424.80">
        <route edges="236811148 236811149#0 1271126935 187938713#0 287311357#0 27348585#0 61316915 187938712 287311363#0 1348067247 1348067246#0 287311364 27476746 291941452 942711943 1347887395"/>
    </vehicle>
    <vehicle id="car_119" type="car" depart="428.40">
        <route edges="236811148 236811149#0 1271126935 187938713#0 287311357#0 432309716#0"/>
    </vehicle>
    <vehicle id="car_120" type="car" depart="432.00">
        <route edges="61316958 236818220#0 287956206#2 1271126935 187938713#0 287311357#0"/>
    </vehicle>
    <vehicle id="car_121" type="car" depart="435.60">
        <route edges="200568455#0 227216231#0 236818215 236818214 187938710#0 27348585#0 61316915 187938712 287311363#0 1348067247 1348067246#0 287311364 27476746 291941452 942711943 1347887395 255904385#0 61316958 236818220#0"/>
    </vehicle>
    <vehicle id="car_122" type="car" depart="439.20">
        <route edges="236811148 153776637#0 224821293#2 1232799370 1232799371#2 1232799371#4"/>
    </vehicle>
    <vehicle id="car_123" type="car" depart="442.80">
        <route edges="236818214 161297931#0 432309716#0 287956206#2 1271126935 169400610#0 224821292#0 1147624737#0 1147624737#1"/>
    </vehicle>
    <vehicle id="car_124" type="car" depart="446.40">
        <route edges="227216231#0 236818215 236818214 187938710#0 169400609#0 224821293#2 1232799370 1232799371#2 1232799371#4 277203712 236809165"/>
    </vehicle>
    <vehicle id="car_125" type="car" depart="450.00">
        <route edges="169400610#0 224821292#0 1147624737#0 1147624737#1"/>
    </vehicle>
    <vehicle id="car_126" type="car" depart="453.60">
        <route edges="287311363#0 1348067247 1348067246#0 287311364 27476746 291941452 942711943 1347887395 255904385#0 61316958 236818220#0 287956206#2 1271126935 187938713#0 287311357#0 27348585#0 61316915 287956205"/>
    </vehicle>
    <vehicle id="car_127" type="car" depart="457.20">
        <route edges="961539471 961539472 236811148 236811149#0 1451328237#0 E1 1323631883"/>
    </vehicle>
    <vehicle id="car_128" type="car" depart="460.80">
        <route edges="29114711#0.184 1362017843 1362017842.95 313992354#0 313992354#1 1362017841 313992351#0 287311357#0"/>
    </vehicle>
    <vehicle id="car_129" type="car" depart="464.40">
        <route edges="1362017841 313992351#0 287311357#0 27348585#0 61316915 187938712 287311363#0 1348067247 1348067246#0 287311364 27476746 291941452 291941449 1232964862 27476764#0 -1348067248"/>
    </vehicle>
    <vehicle id="car_130" type="car" depart="468.00">
        <route edges="200568455#0 227216231#0 236818215 236818214 187938710#0 27348585#0 61316915 187938712 287311363#0 1348067247 1348067246#0 287311364 27476746 291941452 942711943 1347887395 255904385#0 61316958 236818220#0"/>
    </vehicle>
    <vehicle id="car_131" type="car" depart="471.60">
        <route edges="961539471 961539472 236811148 236811149#0 1271126935 187938713#0"/>
    </vehicle>
    <vehicle id="car_132" type="car" depart="475.20">
        <route edges="313992351#0 287311357#0 432309716#0 287956206#2 1271126935 169400610#0 224821292#0 1147624737#0 1147624737#1"/>
    </vehicle>
    <vehicle id="car_133" type="car" depart="478.80">
        <route edges="1348067246#0 287311364 27476746 291941452 942711943 1347887395 255904385#0 61316958 236818220#0 287956206#2 1271126935 187938713#0 287311357#0 27348585#0 61316915 187938712 287311363#0"/>
    </vehicle>
    <vehicle id="car_134" type="car" depart="482.40">
        <route edges="236811149#0 1271126935 169400610#0"/>
    </vehicle>
    <vehicle id="car_135" type="car" depart="486.00">
        <route edges="61316958 236818220#0 287956206#2 1451328237#0 E1 1323631883 430532793.85"/>
    </vehicle>
    <vehicle id="car_136" type="car" depart="489.60">
        <route edges="27348585#0 61316915 187938712 287311363#0 1348067247 1348067246#0 287311364 27476746 291941452 942711943 1347887395 255904385#0 61316958 236818220#0 287956206#2 1271126935 169400610#0 224821292#0"/>
    </vehicle>
    <vehicle id="car_137" type="car" depart="493.20">
        <route edges="236811149#0 1271126935 187938713#0 287311357#0 27348585#0 61316915 187938712 287311363#0 1348067247 1348067246#0 287311364 27476746 291941452 291941449 1232964862 27476764#0"/>
    </vehicle>
    <vehicle id="car_138" type="car" depart="496.80">