<?xml version="1.0" encoding="UTF-8"?>

<!-- generated on 2026-03-15 19:03:44.064415 by Eclipse SUMO randomTrips.py v1_26_0+0000-fa7df22d7f1
<configuration>
    <net-file value="network\osm.net.xml"/>
    <additional-files value="demand\vtypes.add.xml"/>
    <output-trip-file value="demand\truck.trips.xml"/>
    <route-file value="demand\truck.rou.xml"/>
    <prefix value="truck_"/>
    <trip-attributes value="type='truck'"/>
    <lanes value="True"/>
    <fringe-factor value="5.0"/>
    <edge-permission value="truck"/>
    <period value="25.0"/>
    <poisson value="True"/>
</configuration>
-->

<!-- generated on 2026-03-15T19:03:43.994076+01:00 by Eclipse SUMO duarouter 1.26.0
<duarouterConfiguration xmlns:xsi="http://www.w3.org/2001/XMLSchema-instance" xsi:noNamespaceSchemaLocation="http://sumo.dlr.de/xsd/duarouterConfiguration.xsd">

    <input>
        <net-file value="network\osm.net.xml"/>
        <additional-files value="demand\vtypes.add.xml"/>
        <route-files value="demand\truck.trips.xml"/>
    </input>

    <output>
        <output-file value="demand\truck.rou.xml"/>
        <alternatives-output value="NUL"/>
    </output>

    <time>
        <begin value="0"/>
        <end value="3600.0"/>
    </time>

    <report>
        <no-warnings value="true"/>
        <ignore-errors value="true"/>
        <no-step-log value="true"/>
    </report>

</duarouterConfiguration>
-->

<routes xmlns:xsi="http://www.w3.org/2001/XMLSchema-instance" xsi:noNamespaceSchemaLocation="http://sumo.dlr.de/xsd/routes_file.xsd">
    <vType id="truck" length="12.00" maxSpeed="25.00" vClass="truck" emissionClass="HBEFA3/HDV_D_EU4" guiShape="truck" color="blue" accel="1.2" decel="4.0" sigma="0.5"/>
    <vehicle id="truck_0" type="truck" depart="0.00">
        <route edges="287311357#0 27348585#0 61316915 187938712 287311363#0 1348067247 1348067246#0 287311364 27476746 291941452 291941449 1232964862 27476764#0 -1348067248"/>
    </vehicle>
    <vehicle id="truck_1" type="truck" depart="25.00">
        <route edges="313992354#1 1362017841 313992351#0 287311357#0 27348585#0 61316915 187938712 287311363#0 1348067247 1348067246#0 287311364 27476746 291941452 942711943 1347887395 255904385#0 61316958 236818220#0"/>
    </vehicle>
    <vehicle id="truck_2" type="truck" depart="50.00">
        <route edges="961539471 961539472 236811148 236811149#0 1271126935 169400610#0 224821292#0 1147624737#0 1147624737#1"/>
    </vehicle>
    <vehicle id="truck_3" type="truck" depart="75.00">
        <route edges="287311363#0 1348067247 1348067246#0 287311364 27476746 291941452 942711943 1347887395 255904385#0 61316958 236818221#0 224821293#2 1232799370 1232799371#2 1232799371#4 277203712 236809165"/>
    </vehicle>
    <vehicle id="truck_4" type="truck" depart="100.00">
        <route edges="61293002 61293002.258 236825276 291941452 291941449 1232964862 1232964863 287311364 236825277 -1316855122#3"/>
    </vehicle>
    <vehicle id="truck_5" type="truck" depart="125.00">
        <route edges="200568455#0 227216231#0 236818215 236818214 187938710#0 169400609#0 224821293#2 1232799370 1232799371#2 1232799371#4"/>
    </vehicle>
    <vehicle id="truck_6" type="truck" depart="150.00">
        <route edges="961539471 961539472 236811148 236811149#0 1271126935 187938713#0 287311357#0 169400609#0"/>
    </vehicle>
    <vehicle id="truck_7" type="truck" depart="175.00">
        <route edges="432309717 -27476683 942711942 1232964862 1232964863 287311364 27476746 291941452 942711943 1347887395 255904385#0 61316958 236818221#0 224821293#2 1232799370 1232799371#2 1232799371#4 277203712"/>
    </vehicle>
    <vehicle id="truck_8" type="truck" depart="200.00">
        <route edges="27348585#0 61316915 187938712 287311363#0 1348067247 1348067246#0 287311364 27476746 291941452 942711943"/>
    </vehicle>
    <vehicle id="truck_9" type="truck" depart="225.00">
        <route edges="224821293#2 1232799370 1232799371#2 1232799371#4 277203712 236809165"/>
    </vehicle>
    <vehicle id="truck_10" type="truck" depart="250.00">
        <route edges="29114711#0.184 1362017843 1362017842.95 313992354#0 313992354#1 1362017841 153776638#0 224821292#0 1147624737#0"/>
    </vehicle>
    <vehicle id="truck_11" type="truck" depart="275.00">
        <route edges="161297934 1362019276 29092803 942711932#0 61316958 236818220#0 287956206#2 1271126935 187938713#0 287311357#0 27348585#0 61316915 287956205 25126523 1362019277 1362020490"/>
    </vehicle>
    <vehicle id="truck_12" type="truck" depart="300.00">
        <route edges="1348067246#0 287311364 27476746 291941452 291941449 1232964862 27476764#0 -1348067248 61295588#0 25126523 1362019277 1362020490"/>
    </vehicle>
    <vehicle id="truck_13" type="truck" depart="325.00">
        <route edges="187938710#0 27348585#0 61316915 187938712 287311363#0 1348067247 1348067246#0 287311364 27476746 291941452 942711943 1347887395 255904385#0 61316958"/>
    </vehicle>
    <vehicle id="truck_14" type="truck" depart="350.00">
        <route edges="61316915 287956205"/>
    </vehicle>
    <vehicle id="truck_15" type="truck" depart="375.00">
        <route edges="161297934 1362019276 196664102 -942711933"/>
    </vehicle>
    <vehicle id="truck_16" type="truck" depart="400.00">
        <route edges="200568455#0 227216231#0 236818215 236818214 187938710#0 27348585#0 61316915 287956205 25126523 1362019277 1362020490"/>
    </vehicle>
    <vehicle id="truck_17" type="truck" depart="425.00">
        <route edges="161297934 1362019276 29092803 942711932#0 61316958"/>
    </vehicle>
    <vehicle id="truck_18" type="truck" depart="450.00">
        <route edges="187938710#0 27348585#0 61316915 287956205 25126523 1362019277"/>
    </vehicle>
    <vehicle id="truck_19" type="truck" depart="475.00">
        <route edges="961539471 961539472 236811148 236811149#0 1451328237#0 E1 1323631883 430532793.85 430532793.85.34 430532793.85.34.10 430532795"/>
    </vehicle>
    <vehicle id="truck_20" type="truck" depart="500.00">
        <route edges="29114711#0.184 1362017843 1362017842.95 313992354#0 313992354#1 1362017841 313992351#0 287311357#0 169400609#0 224821293#2 1232799370 1232799371#2 1232799371#4 277203712 236809165"/>
    </vehicle>
    <vehicle id="truck_21" type="truck" depart="525.00">
        <route edges="942711932#0 61316958 236818220#0 287956206#2 1271126935 187938713#0 287311357#0 27348585#0 61316915 287956205 25126523 1362019277 1362020490"/>
    </vehicle>
    <vehicle id="truck_22" type="truck" depart="550.00">
        <route edges="961539471 961539472 236811148 236811149#0 1451328237#0 E1 1323631883 430532793.85 430532793.85.34 430532793.85.34.10 430532795"/>
    </vehicle>
    <vehicle id="truck_23" type="truck" depart="575.00">
        <route edges="200568455#0 227216231#0 236818215 236818214 161297931#0 432309716#0 287956206#2 1271126935 169400610#0 224821292#0 1147624737#0 1147624737#1"/>
    </vehicle>
    <vehicle id="truck_24" type="truck" depart="600.00">
        <route edges="1271126935 187938713#0 287311357#0"/>
    </vehicle>
    <vehicle id="truck_25" type="truck" depart="625.00">
        <route edges="236818215 236818214 187938710#0 169400609#0 224821293#2 1232799370 1232799371#2 1232799371#4 277203712 236809165"/>
    </vehicle>
    <vehicle id="truck_26" type="truck" depart="650.00">
        <route edges="187938710#0 27348585#0 61316915 187938712 287311363#0 1348067247 1348067246#0 287311364 27476746 291941452 942711943 1347887395 255904385#0 61316958 236818220#0 287956206#2 1451328237#0 E1 1323631883 430532793.85 430532793.85.34 430532793.85.34.10 430532795"/>
    </vehicle>
    <vehicle id="truck_27" type="truck" depart="675.00">
        <route edges="27348585#0 61316915 187938712 287311363#0 1348067247 1348067246#0 287311364 27476746 291941452 942711943 1347887395 255904385#0 61316958 236818221#0 224821293#2 1232799370 1232799371#2 1232799371#4 277203712"/>
    </vehicle>
    <vehicle id="truck_28" type="truck" depart="700.00">
        <route edges="236811149#0 1271126935 187938713#0 287311357#0 169400609#0 224821293#2 1232799370 1232799371#2 1232799371#4 277203712 236809165"/>
    </vehicle>
    <vehicle id="truck_29" type="truck" depart="725.00">
        <route edges="161297934 1362019276 29092803 942711932#0 61316958 236818220#0 287956206#2 1271126935 187938713#0 287311357#0 432309716#0"/>
    </vehicle>
    <vehicle id="truck_30" type="truck" depart="750.00">
        <route edges="61316958 236818220#0 287956206#2 1271126935 169400610#0 224821292#0 1147624737#0 1147624737#1"/>
    </vehicle>
    <vehicle id="truck_31" type="truck" depart="775.00">
        <route edges="161297934 1362019276 29092803 942711932#0 61316958 236818221#0 224821293#2 1232799370 1232799371#2"/>
    </vehicle>
    <vehicle id="truck_32" type="truck" depart="800.00">
        <route edges="961539471 961539472 236811148 153776637#0 224821293#2 1232799370 1232799371#2 1232799371#4 277203712 236809165"/>
    </vehicle>
    <vehicle id="truck_33" type="truck" depart="825.00">
        <route edges="236818214 161297931#0 432309716#0 287956206#2"/>
    </vehicle>
    <vehicle id="truck_34" type="truck" depart="850.00">
        <route edges="432309717 -27476683 942711942 1232964862 1232964863 287311364 27476746 291941452 942711943 1347887395"/>
    </vehicle>
    <vehicle id="truck_35" type="truck" depart="875.00">
        <route edges="313992354#0 313992354#1 1362017841 313992351#0 287311357#0 27348585#0 61316915 187938712 287311363#0 1348067247 1348067246#0 287311364 27476746 291941452 942711943 1347887395 255904385#0 61316958 236818220#0"/>
    </vehicle>
    <vehicle id="truck_36" type="truck" depart="900.00">
        <route edges="961539472 236811148 236811149#0 1271126935 169400610#0 224821292#0 1147624737#0 1147624737#1"/>
    </vehicle>
    <vehicle id="truck_37" type="truck" depart="925.00">
        <route edges="236811148 236811149#0 1271126935 187938713#0 287311357#0 169400609#0"/>
    </vehicle>
    <vehicle id="truck_38" type="truck" depart="950.00">
        <route edges="61316958 236818220#0 287956206#2 1271126935 187938713#0 287311357#0 27348585#0 61316915 287956205 25126523 1362019277"/>
    </vehicle>
    <vehicle id="truck_39" type="truck" depart="975.00">
        <route edges="236811148 236811149#0 1271126935 187938713#0 287311357#0 27348585#0 61316915 287956205 25126523 1362019277 1362020490"/>
    </vehicle>
    <vehicle id="truck_40" type="truck" depart="1000.00">
        <route edges="236811149#0 1451328237#0 E1 1323631883 430532793.85 430532793.85.34 430532793.85.34.10 430532795"/>
    </vehicle>
    <vehicle id="truck_41" type="truck" depart="1025.00">
        <route edges="E1 1323631883 430532793.85 430532793.85.34"/>
    </vehicle>
    <vehicle id="truck_42" type="truck" depart="1050.00">
        <route edges="961539471 961539472 236811148 236811149#0 1271126935 187938713#0 287311357#0 27348585#0 61316915"/>
    </vehicle>
    <vehicle id="truck_43" type="truck" depart="1075.00">
        <route edges="61316958 236818220#0 287956206#2 1271126935"/>
    </vehicle>
    <vehicle id="truck_44" type="truck" depart="1100.00">
        <route edges="227216231#0 236818215 236818214 161297931#0 432309716#0 287956206#2 1271126935 169400610#0 224821292#0 1147624737#0 1147624737#1"/>
    </vehicle>
    <vehicle id="truck_45" type="truck" depart="1125.00">
        <route edges="187938710#0 27348585#0 61316915 187938712 287311363#0 1348067247 1348067246#0 287311364 27476746 291941452 942711943 1347887395 255904385#0 61316958 236818220#0 287956206#2"/>
    </vehicle>
    <vehicle id="truck_46" type="truck" depart="1150.00">
        <route edges="961539471 961539472"/>
    </vehicle>
    <vehicle id="truck_47" type="truck" depart="1175.00">
        <route edges="1362019277 1362020490"/>
    </vehicle>
    <vehicle id="truck_48" type="truck" depart="1200.00">
        <route edges="961539471 961539472 236811148"/>
    </vehicle>
    <vehicle id="truck_49" type="truck" depart="1225.00">
        <route edges="1271126935 187938713#0 287311357#0 432309716#0 287956206#2 1451328237#0 E1 1323631883"/>
    </vehicle>
    <vehicle id="truck_50" type="truck" depart="1250.00">
        <route edges="169400609#0 224821293#2 1232799370"/>
    </vehicle>
    <vehicle id="truck_51" type="truck" depart="1275.00">
        <route edges="961539471 961539472 236811148 236811149#0 1271126935 187938713#0 287311357#0 27348585#0 61316915 287956205 25126523 1362019277"/>
    </vehicle>
    <vehicle id="truck_52" type="truck" depart="1300.00">
        <route edges="236811148"/>
    </vehicle>
    <vehicle id="truck_53" type="truck" depart="1325.00">
        <route edges="161297934 1362019276 29092803 942711932#0 61316958 236818220#0 287956206#2 1271126935 187938713#0 287311357#0 27348585#0"/>
    </vehicle>
    <vehicle id="truck_54" type="truck" depart="1350.00">
        <route edges="29114711#0.184 1362017843 1362017842.95 313992354#0 313992354#1 1362017841 313992351#0 287311357#0 432309716#0 287956206#2 1451328237#0"/>
    </vehicle>
    <vehicle id="truck_55" type="truck" depart="1375.00">
        <route edges="E1"/>
    </vehicle>
    <vehicle id="truck_56" type="truck" depart="1400.00">
        <route edges="187938710#0 27348585#0 61316915 187938712 287311363#0 1348067247 1348067246#0 287311364 27476746 291941452 942711943 1347887395 255904385#0 61316958"/>
    </vehicle>
    <vehicle id="truck_57" type="truck" depart="1425.00">
        <route edges="942711942 1232964862 1232964863 287311364 27476746 291941452 942711943 1347887395 255904385#0 61316958 236818220#0 287956206#2 1451328237#0 E1 1323631883 430532793.85 430532793.85.34 430532793.85.34.10 430532795"/>
    </vehicle>
    <vehicle id="truck_58" type="truck" depart="1450.00">
        <route edges="61295588#0 25126523"/>
    </vehicle>
    <vehicle id="truck_59" type="truck" depart="1475.00">
        <route edges="61293002 61293002.258 236825276 291941452 942711943 1347887395 255904385#0 61316958 236818220#0 287956206#2 1451328237#0"/>
    </vehicle>
    <vehicle id="truck_60" type="truck" depart="1500.00">
        <route edges="287956206#2 1271126935 187938713#0 287311357#0 27348585#0 61316915 187938712 287311363#0 1348067247 1348067246#0 287311364 27476746 291941452 942711943 1347887395 255904385#0 61316958"/>
    </vehicle>
    <vehicle id="truck_61" type="truck" depart="1525.00">
        <route edges="1362017843 1362017842.95 313992354#0 313992354#1 1362017841 153776638#0 224821292#0 1147624737#0 1147624737#1"/>
    </vehicle>
    <vehicle id="truck_62" type="truck" depart="1550.00">
        <route edges="1362017841 313992351#0 287311357#0 169400609#0 224821293#2 1232799370 1232799371#2 1232799371#4 277203712 236809165"/>
    </vehicle>
    <vehicle id="truck_63" type="truck" depart="1575.00">
        <route edges="236818215 236818214 161297931#0 432309716#0"/>
    </vehicle>
    <vehicle id="truck_64" type="truck" depart="1600.00">
        <route edges="61316915 187938712 287311363#0 1348067247 1348067246#0 287311364 27476746 291941452 942711943 1347887395 255904385#0 61316958 236818220#0 287956206#2 1271126935 169400610#0 224821292#0 1147624737#0 1147624737#1"/>
    </vehicle>
    <vehicle id="truck_65" type="truck" depart="1625.00">
        <route edges="236811148 236811149#0 1271126935 187938713#0 287311357#0 27348585#0 61316915 287956205 25126523 1362019277 1362020490"/>
    </vehicle>
    <vehicle id="truck_66" type="truck" depart="1650.00">
        <route edges="287311357#0 27348585#0 61316915 287956205 25126523 1362019277 1362020490"/>
    </vehicle>
    <vehicle id="truck_67" type="truck" depart="1675.00">
        <route edges="236811149#0 1271126935 187938713#0 287311357#0 27348585#0 61316915 187938712 287311363#0 1348067247 1348067246#0 287311364 236825277 -1316855122#3"/>
    </vehicle>
    <vehicle id="truck_68" type="truck" depart="1700.00">
        <route edges="1271126935 187938713#0 287311357#0 432309716#0 287956206#2 1451328237#0 E1 1323631883 430532793.85 430532793.85.34 430532793.85.34.10 430532795"/>
    </vehicle>
    <vehicle id="truck_69" type="truck" depart="1725.00">
        <route edges="961539471 961539472 236811148 153776637#0 224821293#2 1232799370 1232799371#2 1232799371#4 277203712 236809165"/>
    </vehicle>
    <vehicle id="truck_70" type="truck" depart="1750.00">
        <route edges="1362019276 29092803 942711932#0 61316958 236818221#0 224821293#2 1232799370"/>
    </vehicle>
    <vehicle id="truck_71" type="truck" depart="1775.00">
        <route edges="200568455#0 227216231#0 236818215 236818214 161297931#0 432309716#0"/>
    </vehicle>
    <vehicle id="truck_72" type="truck" depart="1800.00">
        <route edges="432309716#0 287956206#2 1451328237#0 E1 1323631883 430532793.85 430532793.85.34 430532793.85.34.10 430532795"/>
    </vehicle>
    <vehicle id="truck_73" type="truck" depart="1825.00">
        <route edges="169400610#0 224821292#0 1147624737#0 1147624737#1"/>
    </vehicle>
    <vehicle id="truck_74" type="truck" depart="1850.00">
        <route edges="430532793.85.34 430532793.85.34.10 430532795"/>
    </vehicle>
    <vehicle id="truck_75" type="truck" depart="1875.00">
        <route edges="236811148 236811149#0"/>
    </vehicle>
    <vehicle id="truck_76" type="truck" depart="1900.00">
        <route edges="61293002 61293002.258 236825276 291941452 942711943 1347887395 255904385#0 61316958 236818220#0 287956206#2 1451328237#0 E1 1323631883 430532793.85 430532793.85.34 430532793.85.34.10 430532795"/>
    </vehicle>
    <vehicle id="truck_77" type="truck" depart="1925.00">
        <route edges="200568455#0 227216231#0 236818215 236818214 187938710#0 27348585#0 61316915 187938712 287311363#0 1348067247 1348067246#0 287311364 27476746 291941452 942711943 1347887395 255904385#0 61316958"/>
    </vehicle>
    <vehicle id="truck_78" type="truck" depart="1950.00">
        <route edges="432309716#0 287956206#2 1451328237#0 E1 1323631883 430532793.85 430532793.85.34 430532793.85.34.10 430532795"/>
    </vehicle>
    <vehicle id="truck_79" type="truck" depart="1975.00">
        <route edges="61293002 61293002.258 236825276 291941452 291941449 1232964862 27476764#0 -1348067248 61295588#0 25126523 1362019277 1362020490"/>
    </vehicle>
    <vehicle id="truck_80" type="truck" depart="2000.00">
        <route edges="942711932#0 61316958 236818220#0 287956206#2 1451328237#0 E1 1323631883 430532793.85 430532793.85.34 430532793.85.34.10 430532795"/>
    </vehicle>
    <vehicle id="truck_81" type="truck" depart="2025.00">
        <route edges="236818214 161297931#0 432309716#0 287956206#2 1451328237#0"/>
    </vehicle>
    <vehicle id="truck_82" type="truck" depart="2050.00">
        <route edges="200568455#0 227216231#0 236818215 236818214 161297931#0 432309716#0 287956206#2 1451328237#0 E1 1323631883 430532793.85 430532793.85.34 430532793.85.34.10 430532795"/>
    </vehicle>
    <vehicle id="truck_83" type="truck" depart="2075.00">
        <route edges="961539471 961539472 236811148 236811149#0 1271126935 187938713#0 287311357#0 27348585#0 61316915 287956205 25126523 1362019277 1362020490"/>
    </vehicle>
    <vehicle id="truck_84" type="truck" depart="2100.00">
        <route edges="961539472 236811148 153776637#0 224821293#2 1232799370 1232799371#2 1232799371#4 277203712 236809165"/>
    </vehicle>
    <vehicle id="truck_85" type="truck" depart="2125.00">
        <route edges="961539471 961539472 236811148 236811149#0 1271126935 169400610#0 224821292#0 1147624737#0 1147624737#1"/>
    </vehicle>
    <vehicle id="truck_86" type="truck" depart="2150.00">
        <route edges="961539471 961539472 236811148 236811149#0 1271126935"/>
    </vehicle>
    <vehicle id="truck_87" type="truck" depart="2175.00">
        <route edges="961539471 961539472 236811148 236811149#0 1271126935 187938713#0 287311357#0 27348585#0 61316915 287956205 25126523 1362019277 1362020490"/>
    </vehicle>
    <vehicle id="truck_88" type="truck" depart="2200.00">
        <route edges="313992354#0 313992354#1 1362017841 153776638#0"/>
    </vehicle>
    <vehicle id="truck_89" type="truck" depart="2225.00">
        <route edges="27348585#0"/>
    </vehicle>
    <vehicle id="truck_90" type="truck" depart="2250.00">
        <route edges="224821292#0 1147624737#0 1147624737#1"/>
    </vehicle>
    <vehicle id="truck_91" type="truck" depart="2275.00">
        <route edges="200568455#0 227216231#0 236818215 236818214 161297931#0 432309716#0 287956206#2 1451328237#0 E1 1323631883 430532793.85 430532793.85.34 430532793.85.34.10"/>
    </vehicle>
    <vehicle id="truck_92" type="truck" depart="2300.00">
        <route edges="313992351#0 287311357#0 432309716#0 287956206#2 1451328237#0"/>
    </vehicle>
    <vehicle id="truck_93" type="truck" depart="2325.00">
        <route edges="236811148 236811149#0 1271126935 187938713#0 287311357#0 27348585#0 61316915 287956205 25126523 1362019277 1362020490"/>
    </vehicle>
    <vehicle id="truck_94" type="truck" depart="2350.00">
        <route edges="961539471 961539472 236811148 236811149#0 1271126935 187938713#0 287311357#0 27348585#0 61316915 187938712 287311363#0 1348067247 1348067246#0 287311364 27476746 291941452 942711943 1347887395 255904385#0 61316958 236818220#0"/>
    </vehicle>
    <vehicle id="truck_95" type="truck" depart="2375.00">
        <route edges="961539471 961539472 236811148 236811149#0"/>
    </vehicle>
    <vehicle id="truck_96" type="truck" depart="2400.00">
        <route edges="200568455#0 227216231#0 236818215 236818214 187938710#0 169400609#0 224821293#2 1232799370 1232799371#2 1232799371#4 277203712 236809165"/>
    </vehicle>
    <vehicle id="truck_97" type="truck" depart="2425.00">
        <route edges="-1348067248 61295588#0 25126523 1362019277 1362020490"/>
    </vehicle>
    <vehicle id="truck_98" type="truck" depart="2450.00">
        <route edges="236818214 161297931#0 432309716#0"/>
    </vehicle>
    <vehicle id="truck_99" type="truck" depart="2475.00">
        <route edges="432309716#0 287956206#2 1271126935"/>
    </vehicle>
    <vehicle id="truck_100" type="truck" depart="2500.00">
        <route edges="1271126935 187938713#0 287311357#0 169400609#0 224821293#2 1232799370 1232799371#2 1232799371#4 277203712 236809165"/>
    </vehicle>
    <vehicle id="truck_101" type="truck" depart="2525.00">
        <route edges="29114711#0.184 1362017843"/>
    </vehicle>
    <vehicle id="truck_102" type="truck" depart="2550.00">
        <route edges="161297934 1362019276 29092803 432309717 -27476683 942711942 1232964862 27476764#0 -1348067248"/>
    </vehicle>
    <vehicle id="truck_103" type="truck" depart="2575.00">
        <route edges="169400610#0 224821292#0"/>
    </vehicle>
    <vehicle id="truck_104" type="truck" depart="2600.00">
        <route edges="61316958 236818220#0 287956206#2 1271126935 169400610#0 224821292#0 1147624737#0 1147624737#1"/>
    </vehicle>
    <vehicle id="truck_105" type="truck" depart="2625.00">
        <route edges="161297934 1362019276 29092803 432309717 -27476683 942711942 1232964862 1232964863 287311364 236825277"/>
    </vehicle>
    <vehicle id="truck_106" type="truck" depart="2650.00">
        <route edges="961539471 961539472 236811148 236811149#0"/>
    </vehicle>
    <vehicle id="truck_107" type="truck" depart="2675.00">
        <route edges="61293002.258 236825276 291941452 942711943 1347887395 255904385#0 61316958 236818221#0 224821293#2 1232799370 1232799371#2 1232799371#4 277203712 236809165"/>
    </vehicle>
    <vehicle id="truck_108" type="truck" depart="2700.00">
        <route edges="236818215 236818214 187938710#0 27348585#0 61316915 287956205 25126523 1362019277 1362020490"/>
    </vehicle>
    <vehicle id="truck_109" type="truck" depart="2725.00">
        <route edges="1271126935 187938713#0 287311357#0 27348585#0 61316915 287956205 25126523 1362019277 1362020490"/>
    </vehicle>
    <vehicle id="truck_110" type="truck" depart="2750.00">
        <route edges="27348585#0 61316915 187938712 287311363#0 1348067247 1348067246#0 287311364 27476746 291941452 942711943 1347887395 255904385#0 61316958 236818221#0 224821293#2 1232799370 1232799371#2"/>
    </vehicle>
    <vehicle id="truck_111" type="truck" depart="2775.00">
        <route edges="29114711#0.184 1362017843 1362017842.95 313992354#0 313992354#1 1362017841 153776638#0 224821292#0 1147624737#0 1147624737#1"/>
    </vehicle>
    <vehicle id="truck_112" type="truck" depart="2800.00">
        <route edges="236811148 153776637#0 224821293#2 1232799370 1232799371#2 1232799371#4 277203712 236809165"/>
    </vehicle>
    <vehicle id="truck_113" type="truck" depart="2825.00">
        <route edges="236811148 236811149#0 1271126935 187938713#0 287311357#0 432309716#0"/>
    </vehicle>
    <vehicle id="truck_114" type="truck" depart="2850.00">
        <route edges="61316958 236818220#0 287956206#2 1271126935 187938713#0 287311357#0 27348585#0 61316915 187938712 287311363#0"/>
    </vehicle>
    <vehicle id="truck_115" type="truck" depart="2875.00">
        <route edges="200568455#0 227216231#0 236818215 236818214 187938710#0 27348585#0 61316915 187938712 287311363#0 1348067247 1348067246#0 287311364 27476746 291941452 942711943 1347887395 255904385#0 61316958 236818221#0"/>
    </vehicle>
    <vehicle id="truck_116" type="truck" depart="2900.00">
        <route edges="236811148 236811149#0 1271126935"/>
    </vehicle>
    <vehicle id="truck_117" type="truck" depart="2925.00">
        <route edges="236818214 187938710#0 169400609#0 224821293#2 1232799370"/>
    </vehicle>
    <vehicle id="truck_118" type="truck" depart="2950.00">
        <route edges="227216231#0 236818215 236818214 187938710#0 169400609#0 224821293#2 1232799370 1232799371#2 1232799371#4 277203712 236809165"/>
    </vehicle>
    <vehicle id="truck_119" type="truck" depart="2975.00">
        <route edges="169400610#0 224821292#0 1147624737#0 1147624737#1"/>
    </vehicle>
    <vehicle id="truck_120" type="truck" depart="3000.00">
        <route edges="287311363#0 1348067247 1348067246#0 287311364 27476746 291941452 942711943 1347887395 255904385#0 61316958 236818220#0 287956206#2"/>
    </vehicle>
    <vehicle id="truck_121" type="truck" depart="3025.00">
        <route edges="961539471 961539472 236811148 236811149#0 1271126935 187938713#0 287311357#0 27348585#0 61316915 187938712 287311363#0 1348067247"/>
    </vehicle>
    <vehicle id="truck_122" type="truck" depart="3050.00">
        <route edges="29114711#0.184 1362017843 1362017842.95 313992354#0 313992354#1 1362017841 313992351#0 287311357#0 27348585#0 61316915 187938712 287311363#0"/>
    </vehicle>
    <vehicle id="truck_123" type="truck" depart="3075.00">
        <route edges="1362017841 313992351#0 287311357#0 27348585#0 61316915 187938712 287311363#0 1348067247 1348067246#0 287311364 27476746 291941452 291941449 1232964862 27476764#0 -1348067248"/>
    </vehicle>
    <vehicle id="truck_124" type="truck" depart="3100.00">
        <route edges="200568455#0 227216231#0 236818215 236818214 187938710#0 27348585#0 61316915 187938712 287311363#0 1348067247 1348067246#0 287311364 27476746 291941452 942711943 1347887395 255904385#0 61316958 236818220#0"/>
    </vehicle>
    <vehicle id="truck_125" type="truck" depart="3125.00">
        <route edges="313992351#0 287311357#0 432309716#0 287956206#2 1271126935 169400610#0 224821292#0 1147624737#0 1147624737#1"/>
    </vehicle>
    <vehicle id="truck_126" type="truck" depart="3150.00">
        <route edges="1348067246#0 287311364 27476746 291941452 942711943 1347887395 255904385#0 61316958 236818220#0 287956206#2 1271126935 187938713#0 287311357#0 27348585#0 61316915 287956205"/>
    </vehicle>
    <vehicle id="truck_127" type="truck" depart="3175.00">
        <route edges="61316958 236818220#0 287956206#2 1451328237#0 E1 1323631883 430532793.85"/>
    </vehicle>
    <vehicle id="truck_128" type="truck" depart="3200.00">
        <route edges="27348585#0 61316915 187938712 287311363#0 1348067247 1348067246#0 287311364 27476746 291941452 942711943 1347887395 255904385#0 61316958 236818221#0 224821293#2"/>
    </vehicle>
    <vehicle id="truck_129" type="truck" depart="3225.00">
        <route edges="236811149#0 1271126935 187938713#0 287311357#0 169400609#0 224821293#2 1232799370 1232799371#2 1232799371#4 277203712"/>
    </vehicle>
    <vehicle id="truck_130" type="truck" depart="3250.00">
        <route edges="187938710#0 27348585#0 61316915 187938712 287311363#0 1348067247 1348067246#0 287311364 27476746 291941452 942711943 1347887395 255904385#0 61316958 236818220#0 287956206#2 1451328237#0 E1 1323631883 430532793.85 430532793.85.34 430532793.85.34.10"/>
    </vehicle>
    <vehicle id="truck_131" type="truck" depart="3275.00">
        <route edges="61293002.258 236825276 291941452 942711943 1347887395 255904385#0 61316958 236818220#0 287956206#2 1271126935 169400610#0 224821292#0 1147624737#0 1147624737#1"/>
    </vehicle>
    <vehicle id="truck_132" type="truck" depart="3300.00">
        <route edges="61316958 236818220#0 287956206#2 1451328237#0 E1 1323631883"/>
    </vehicle>
    <vehicle id="truck_133" type="truck" depart="3325.00">
        <route edges="200568455#0 227216231#0 236818215 236818214 161297931#0 432309716#0 287956206#2 1451328237#0 E1 1323631883 430532793.85 430532793.85.34 430532793.85.34.10 430532795"/>
    </vehicle>
    <vehicle id="truck_134" type="truck" depart="3350.00">
        <route edges="29114711#0.184 1362017843 1362017842.95 196662201 942711933 196664103 1362019277 1362020490"/>
    </vehicle>
    <vehicle id="truck_135" type="truck" depart="3375.00">
        <route edges="236818215 236818214 161297931#0 432309716#0 287956206#2 1271126935 187938713#0 287311357#0"/>
    </vehicle>
    <vehicle id="truck_136" type="truck" depart="3400.00">
        <route edges="29114711#0.184 1362017843 1362017842.95 313992354#0 313992354#1 1362017841 313992351#0 287311357#0 432309716#0 287956206#2 1451328237#0"/>
    </vehicle>